768
schwarz p surface w defect (in angstroms)
C	5.528259	5.254956	12.002748
C	9.112484	2.598409	9.277804
C	3.085447	6.658930	13.258435
C	6.694701	2.968983	13.350688
C	6.338490	6.205635	9.482893
C	7.887915	1.245578	11.583843
C	11.594701	1.377133	7.838462
C	8.295163	5.124223	8.376168
C	6.509767	4.418721	11.478717
C	4.823604	6.269472	11.295819
C	5.192875	5.120329	13.329215
C	9.820456	3.322059	8.267287
C	8.121316	3.103280	10.132969
C	9.468916	1.282867	9.369269
C	1.629009	7.065592	13.934478
C	4.081073	5.938295	13.953318
C	3.492594	6.855479	11.927403
C	5.966227	4.029168	14.005257
C	7.077896	1.560151	13.974792
C	6.902857	3.223909	12.150615
C	5.232050	6.685185	10.105436
C	7.318265	4.325431	10.249091
C	6.739962	6.810233	8.368775
C	7.471087	0.636459	13.026432
C	8.662783	0.609120	10.476147
C	7.702880	2.424197	11.332130
C	10.615486	0.673747	8.535374
C	7.319530	5.090611	9.495588
C	-5.528259	-5.254956	12.002748
C	-5.528259	5.254956	-12.002748
C	-5.528259	5.254956	12.002748
C	-5.254956	-12.002748	-5.528259
C	-5.254956	-12.002748	5.528259
C	-5.254956	12.002748	-5.528259
C	-5.254956	12.002748	5.528259
C	-12.002748	-5.528259	-5.254956
C	-12.002748	-5.528259	5.254956
C	-12.002748	5.528259	-5.254956
C	-12.002748	5.528259	5.254956
C	12.002748	-5.528259	-5.254956
C	12.002748	-5.528259	5.254956
C	12.002748	5.528259	-5.254956
C	12.002748	5.528259	5.254956
C	5.254956	-12.002748	-5.528259
C	5.254956	-12.002748	5.528259
C	5.254956	12.002748	-5.528259
C	5.254956	12.002748	5.528259
C	5.528259	-5.254956	-12.002748
C	5.528259	-5.254956	12.002748
C	5.528259	5.254956	-12.002748
C	-5.528259	-5.254956	-12.002748
C	-9.112484	-2.598409	9.277804
C	-9.112484	2.598409	-9.277804
C	-9.112484	2.598409	9.277804
C	-2.598409	-9.277804	-9.112484
C	-2.598409	-9.277804	9.112484
C	-2.598409	9.277804	-9.112484
C	-2.598409	9.277804	9.112484
C	-9.277804	-9.112484	-2.598409
C	-9.277804	-9.112484	2.598409
C	-9.277804	9.112484	-2.598409
C	-9.277804	9.112484	2.598409
C	9.277804	-9.112484	-2.598409
C	9.277804	-9.112484	2.598409
C	9.277804	9.112484	-2.598409
C	9.277804	9.112484	2.598409
C	2.598409	-9.277804	-9.112484
C	2.598409	-9.277804	9.112484
C	2.598409	9.277804	-9.112484
C	2.598409	9.277804	9.112484
C	9.112484	-2.598409	-9.277804
C	9.112484	-2.598409	9.277804
C	9.112484	2.598409	-9.277804
C	-9.112484	-2.598409	-9.277804
C	-3.085447	-6.658930	13.258435
C	-3.085447	6.658930	-13.258435
C	-3.085447	6.658930	13.258435
C	-6.658930	-13.258435	-3.085447
C	-6.658930	-13.258435	3.085447
C	-6.658930	13.258435	-3.085447
C	-6.658930	13.258435	3.085447
C	-13.258435	-3.085447	-6.658930
C	-13.258435	-3.085447	6.658930
C	-13.258435	3.085447	-6.658930
C	-13.258435	3.085447	6.658930
C	13.258435	-3.085447	-6.658930
C	13.258435	-3.085447	6.658930
C	13.258435	3.085447	-6.658930
C	13.258435	3.085447	6.658930
C	6.658930	-13.258435	-3.085447
C	6.658930	-13.258435	3.085447
C	6.658930	13.258435	-3.085447
C	6.658930	13.258435	3.085447
C	3.085447	-6.658930	-13.258435
C	3.085447	-6.658930	13.258435
C	3.085447	6.658930	-13.258435
C	-3.085447	-6.658930	-13.258435
C	-6.694701	-2.968983	13.350688
C	-6.694701	2.968983	-13.350688
C	-6.694701	2.968983	13.350688
C	-2.968983	-13.350688	-6.694701
C	-2.968983	-13.350688	6.694701
C	-2.968983	13.350688	-6.694701
C	-2.968983	13.350688	6.694701
C	-13.350688	-6.694701	-2.968983
C	-13.350688	-6.694701	2.968983
C	-13.350688	6.694701	-2.968983
C	-13.350688	6.694701	2.968983
C	13.350688	-6.694701	-2.968983
C	13.350688	-6.694701	2.968983
C	13.350688	6.694701	-2.968983
C	13.350688	6.694701	2.968983
C	2.968983	-13.350688	-6.694701
C	2.968983	-13.350688	6.694701
C	2.968983	13.350688	-6.694701
C	2.968983	13.350688	6.694701
C	6.694701	-2.968983	-13.350688
C	6.694701	-2.968983	13.350688
C	6.694701	2.968983	-13.350688
C	-6.694701	-2.968983	-13.350688
C	-6.338490	-6.205635	9.482893
C	-6.338490	6.205635	-9.482893
C	-6.338490	6.205635	9.482893
C	-6.205635	-9.482893	-6.338490
C	-6.205635	-9.482893	6.338490
C	-6.205635	9.482893	-6.338490
C	-6.205635	9.482893	6.338490
C	-9.482893	-6.338490	-6.205635
C	-9.482893	-6.338490	6.205635
C	-9.482893	6.338490	-6.205635
C	-9.482893	6.338490	6.205635
C	9.482893	-6.338490	-6.205635
C	9.482893	-6.338490	6.205635
C	9.482893	6.338490	-6.205635
C	9.482893	6.338490	6.205635
C	6.205635	-9.482893	-6.338490
C	6.205635	-9.482893	6.338490
C	6.205635	9.482893	-6.338490
C	6.205635	9.482893	6.338490
C	6.338490	-6.205635	-9.482893
C	6.338490	-6.205635	9.482893
C	6.338490	6.205635	-9.482893
C	-6.338490	-6.205635	-9.482893
C	-7.887915	-1.245578	11.583843
C	-7.887915	1.245578	-11.583843
C	-7.887915	1.245578	11.583843
C	-1.245578	-11.583843	-7.887915
C	-1.245578	-11.583843	7.887915
C	-1.245578	11.583843	-7.887915
C	-1.245578	11.583843	7.887915
C	-11.583843	-7.887915	-1.245578
C	-11.583843	-7.887915	1.245578
C	-11.583843	7.887915	-1.245578
C	-11.583843	7.887915	1.245578
C	11.583843	-7.887915	-1.245578
C	11.583843	-7.887915	1.245578
C	11.583843	7.887915	-1.245578
C	11.583843	7.887915	1.245578
C	1.245578	-11.583843	-7.887915
C	1.245578	-11.583843	7.887915
C	1.245578	11.583843	-7.887915
C	1.245578	11.583843	7.887915
C	7.887915	-1.245578	-11.583843
C	7.887915	-1.245578	11.583843
C	7.887915	1.245578	-11.583843
C	-7.887915	-1.245578	-11.583843
C	-11.594701	-1.377133	7.838462
C	-11.594701	1.377133	-7.838462
C	-11.594701	1.377133	7.838462
C	-1.377133	-7.838462	-11.594701
C	-1.377133	-7.838462	11.594701
C	-1.377133	7.838462	-11.594701
C	-1.377133	7.838462	11.594701
C	-7.838462	-11.594701	-1.377133
C	-7.838462	-11.594701	1.377133
C	-7.838462	11.594701	-1.377133
C	-7.838462	11.594701	1.377133
C	7.838462	-11.594701	-1.377133
C	7.838462	-11.594701	1.377133
C	7.838462	11.594701	-1.377133
C	7.838462	11.594701	1.377133
C	1.377133	-7.838462	-11.594701
C	1.377133	-7.838462	11.594701
C	1.377133	7.838462	-11.594701
C	1.377133	7.838462	11.594701
C	11.594701	-1.377133	-7.838462
C	11.594701	-1.377133	7.838462
C	11.594701	1.377133	-7.838462
C	-11.594701	-1.377133	-7.838462
C	-8.295163	-5.124223	8.376168
C	-8.295163	5.124223	-8.376168
C	-8.295163	5.124223	8.376168
C	-5.124223	-8.376168	-8.295163
C	-5.124223	-8.376168	8.295163
C	-5.124223	8.376168	-8.295163
C	-5.124223	8.376168	8.295163
C	-8.376168	-8.295163	-5.124223
C	-8.376168	-8.295163	5.124223
C	-8.376168	8.295163	-5.124223
C	-8.376168	8.295163	5.124223
C	8.376168	-8.295163	-5.124223
C	8.376168	-8.295163	5.124223
C	8.376168	8.295163	-5.124223
C	8.376168	8.295163	5.124223
C	5.124223	-8.376168	-8.295163
C	5.124223	-8.376168	8.295163
C	5.124223	8.376168	-8.295163
C	5.124223	8.376168	8.295163
C	8.295163	-5.124223	-8.376168
C	8.295163	-5.124223	8.376168
C	8.295163	5.124223	-8.376168
C	-8.295163	-5.124223	-8.376168
C	-6.509767	-4.418721	11.478717
C	-6.509767	4.418721	-11.478717
C	-6.509767	4.418721	11.478717
C	-4.418721	-11.478717	-6.509767
C	-4.418721	-11.478717	6.509767
C	-4.418721	11.478717	-6.509767
C	-4.418721	11.478717	6.509767
C	-11.478717	-6.509767	-4.418721
C	-11.478717	-6.509767	4.418721
C	-11.478717	6.509767	-4.418721
C	-11.478717	6.509767	4.418721
C	11.478717	-6.509767	-4.418721
C	11.478717	-6.509767	4.418721
C	11.478717	6.509767	-4.418721
C	11.478717	6.509767	4.418721
C	4.418721	-11.478717	-6.509767
C	4.418721	-11.478717	6.509767
C	4.418721	11.478717	-6.509767
C	4.418721	11.478717	6.509767
C	6.509767	-4.418721	-11.478717
C	6.509767	-4.418721	11.478717
C	6.509767	4.418721	-11.478717
C	-6.509767	-4.418721	-11.478717
C	-4.823604	-6.269472	11.295819
C	-4.823604	6.269472	-11.295819
C	-4.823604	6.269472	11.295819
C	-6.269472	-11.295819	-4.823604
C	-6.269472	-11.295819	4.823604
C	-6.269472	11.295819	-4.823604
C	-6.269472	11.295819	4.823604
C	-11.295819	-4.823604	-6.269472
C	-11.295819	-4.823604	6.269472
C	-11.295819	4.823604	-6.269472
C	-11.295819	4.823604	6.269472
C	11.295819	-4.823604	-6.269472
C	11.295819	-4.823604	6.269472
C	11.295819	4.823604	-6.269472
C	11.295819	4.823604	6.269472
C	6.269472	-11.295819	-4.823604
C	6.269472	-11.295819	4.823604
C	6.269472	11.295819	-4.823604
C	6.269472	11.295819	4.823604
C	4.823604	-6.269472	-11.295819
C	4.823604	-6.269472	11.295819
C	4.823604	6.269472	-11.295819
C	-4.823604	-6.269472	-11.295819
C	-5.192875	-5.120328	13.329214
C	-5.192875	5.120328	-13.329214
C	-5.192875	5.120328	13.329214
C	-5.120328	-13.329214	-5.192875
C	-5.120328	-13.329214	5.192875
C	-5.120328	13.329214	-5.192875
C	-5.120328	13.329215	5.192875
C	-13.329214	-5.192875	-5.120328
C	-13.329214	-5.192875	5.120328
C	-13.329214	5.192875	-5.120328
C	-13.329214	5.192875	5.120328
C	13.329214	-5.192875	-5.120328
C	13.329214	-5.192875	5.120328
C	13.329214	5.192875	-5.120328
C	13.329214	5.192875	5.120328
C	5.120328	-13.329214	-5.192875
C	5.120328	-13.329214	5.192875
C	5.120328	13.329214	-5.192875
C	5.120328	13.329215	5.192875
C	5.192875	-5.120328	-13.329214
C	5.192875	-5.120328	13.329214
C	5.192875	5.120328	-13.329214
C	-5.192875	-5.120328	-13.329214
C	-9.820456	-3.322059	8.267287
C	-9.820456	3.322059	-8.267287
C	-9.820456	3.322059	8.267287
C	-3.322059	-8.267287	-9.820456
C	-3.322059	-8.267287	9.820456
C	-3.322059	8.267287	-9.820456
C	-3.322059	8.267287	9.820456
C	-8.267287	-9.820456	-3.322059
C	-8.267287	-9.820456	3.322059
C	-8.267287	9.820456	-3.322059
C	-8.267287	9.820456	3.322059
C	8.267287	-9.820456	-3.322059
C	8.267287	-9.820456	3.322059
C	8.267287	9.820456	-3.322059
C	8.267287	9.820456	3.322059
C	3.322059	-8.267287	-9.820456
C	3.322059	-8.267287	9.820456
C	3.322059	8.267287	-9.820456
C	3.322059	8.267287	9.820456
C	9.820456	-3.322059	-8.267287
C	9.820456	-3.322059	8.267287
C	9.820456	3.322059	-8.267287
C	-9.820456	-3.322059	-8.267287
C	-8.121316	-3.103280	10.132969
C	-8.121316	3.103280	-10.132969
C	-8.121316	3.103280	10.132969
C	-3.103280	-10.132969	-8.121316
C	-3.103280	-10.132969	8.121316
C	-3.103280	10.132969	-8.121316
C	-3.103280	10.132969	8.121316
C	-10.132969	-8.121316	-3.103280
C	-10.132969	-8.121316	3.103280
C	-10.132969	8.121316	-3.103280
C	-10.132969	8.121316	3.103280
C	10.132969	-8.121316	-3.103280
C	10.132969	-8.121316	3.103280
C	10.132969	8.121316	-3.103280
C	10.132969	8.121316	3.103280
C	3.103280	-10.132969	-8.121316
C	3.103280	-10.132969	8.121316
C	3.103280	10.132969	-8.121316
C	3.103280	10.132969	8.121316
C	8.121316	-3.103280	-10.132969
C	8.121316	-3.103280	10.132969
C	8.121316	3.103280	-10.132969
C	-8.121316	-3.103280	-10.132969
C	-9.468916	-1.282867	9.369269
C	-9.468916	1.282867	-9.369269
C	-9.468916	1.282867	9.369269
C	-1.282867	-9.369269	-9.468916
C	-1.282867	-9.369269	9.468916
C	-1.282867	9.369269	-9.468916
C	-1.282867	9.369269	9.468916
C	-9.369269	-9.468916	-1.282867
C	-9.369269	-9.468916	1.282867
C	-9.369269	9.468916	-1.282867
C	-9.369269	9.468916	1.282867
C	9.369269	-9.468916	-1.282867
C	9.369269	-9.468916	1.282867
C	9.369269	9.468916	-1.282867
C	9.369269	9.468916	1.282867
C	1.282867	-9.369269	-9.468916
C	1.282867	-9.369269	9.468916
C	1.282867	9.369269	-9.468916
C	1.282867	9.369269	9.468916
C	9.468916	-1.282867	-9.369269
C	9.468916	-1.282867	9.369269
C	9.468916	1.282867	-9.369269
C	-9.468916	-1.282867	-9.369269
C	-1.629009	-7.065592	13.934478
C	-1.629009	7.065592	-13.934478
C	-1.629009	7.065592	13.934478
C	-7.065592	-13.934478	-1.629009
C	-7.065592	-13.934478	1.629009
C	-7.065592	13.934478	-1.629009
C	-7.065592	13.934478	1.629009
C	-13.934478	-1.629009	-7.065592
C	-13.934478	-1.629009	7.065592
C	-13.934478	1.629009	-7.065592
C	-13.934478	1.629009	7.065592
C	13.934478	-1.629009	-7.065592
C	13.934478	-1.629009	7.065592
C	13.934478	1.629009	-7.065592
C	13.934478	1.629009	7.065592
C	7.065592	-13.934478	-1.629009
C	7.065592	-13.934478	1.629009
C	7.065592	13.934478	-1.629009
C	7.065592	13.934478	1.629009
C	1.629009	-7.065592	-13.934478
C	1.629009	-7.065592	13.934478
C	1.629009	7.065592	-13.934478
C	-1.629009	-7.065592	-13.934478
C	-4.081073	-5.938295	13.953318
C	-4.081073	5.938295	-13.953318
C	-4.081073	5.938295	13.953318
C	-5.938295	-13.953318	-4.081073
C	-5.938295	-13.953318	4.081073
C	-5.938295	13.953318	-4.081073
C	-5.938295	13.953318	4.081073
C	-13.953318	-4.081073	-5.938295
C	-13.953318	-4.081073	5.938295
C	-13.953318	4.081073	-5.938295
C	-13.953318	4.081073	5.938295
C	13.953318	-4.081073	-5.938295
C	13.953318	-4.081073	5.938295
C	13.953318	4.081073	-5.938295
C	13.953318	4.081073	5.938295
C	5.938295	-13.953318	-4.081073
C	5.938295	-13.953318	4.081073
C	5.938295	13.953318	-4.081073
C	5.938295	13.953318	4.081073
C	4.081073	-5.938295	-13.953318
C	4.081073	-5.938295	13.953318
C	4.081073	5.938295	-13.953318
C	-4.081073	-5.938295	-13.953318
C	-3.492594	-6.855479	11.927403
C	-3.492594	6.855479	-11.927403
C	-3.492594	6.855479	11.927403
C	-6.855479	-11.927403	-3.492594
C	-6.855479	-11.927403	3.492594
C	-6.855479	11.927403	-3.492594
C	-6.855479	11.927403	3.492594
C	-11.927403	-3.492594	-6.855479
C	-11.927403	-3.492594	6.855479
C	-11.927403	3.492594	-6.855479
C	-11.927403	3.492594	6.855479
C	11.927403	-3.492594	-6.855479
C	11.927403	-3.492594	6.855479
C	11.927403	3.492594	-6.855479
C	11.927403	3.492594	6.855479
C	6.855479	-11.927403	-3.492594
C	6.855479	-11.927403	3.492594
C	6.855479	11.927403	-3.492594
C	6.855479	11.927403	3.492594
C	3.492594	-6.855479	-11.927403
C	3.492594	-6.855479	11.927403
C	3.492594	6.855479	-11.927403
C	-3.492594	-6.855479	-11.927403
C	-5.966227	-4.029168	14.005257
C	-5.966227	4.029168	-14.005257
C	-5.966227	4.029168	14.005257
C	-4.029168	-14.005257	-5.966227
C	-4.029168	-14.005257	5.966227
C	-4.029168	14.005257	-5.966227
C	-4.029168	14.005257	5.966227
C	-14.005257	-5.966227	-4.029168
C	-14.005257	-5.966227	4.029168
C	-14.005257	5.966227	-4.029168
C	-14.005257	5.966227	4.029168
C	14.005257	-5.966227	-4.029168
C	14.005257	-5.966227	4.029168
C	14.005257	5.966227	-4.029168
C	14.005257	5.966227	4.029168
C	4.029168	-14.005257	-5.966227
C	4.029168	-14.005257	5.966227
C	4.029168	14.005257	-5.966227
C	4.029168	14.005257	5.966227
C	5.966227	-4.029168	-14.005257
C	5.966227	-4.029168	14.005257
C	5.966227	4.029168	-14.005257
C	-5.966227	-4.029168	-14.005257
C	-7.077896	-1.560151	13.974792
C	-7.077896	1.560151	-13.974792
C	-7.077896	1.560151	13.974792
C	-1.560151	-13.974792	-7.077896
C	-1.560151	-13.974792	7.077896
C	-1.560151	13.974792	-7.077896
C	-1.560151	13.974792	7.077896
C	-13.974792	-7.077896	-1.560151
C	-13.974792	-7.077896	1.560151
C	-13.974792	7.077896	-1.560151
C	-13.974792	7.077896	1.560151
C	13.974792	-7.077896	-1.560151
C	13.974792	-7.077896	1.560151
C	13.974792	7.077896	-1.560151
C	13.974792	7.077896	1.560151
C	1.560151	-13.974792	-7.077896
C	1.560151	-13.974792	7.077896
C	1.560151	13.974792	-7.077896
C	1.560151	13.974792	7.077896
C	7.077896	-1.560151	-13.974792
C	7.077896	-1.560151	13.974792
C	7.077896	1.560151	-13.974792
C	-7.077896	-1.560151	-13.974792
C	-6.902857	-3.223909	12.150615
C	-6.902857	3.223909	-12.150615
C	-6.902857	3.223909	12.150615
C	-3.223909	-12.150615	-6.902857
C	-3.223909	-12.150615	6.902857
C	-3.223909	12.150615	-6.902857
C	-3.223909	12.150615	6.902857
C	-12.150615	-6.902857	-3.223909
C	-12.150615	-6.902857	3.223909
C	-12.150615	6.902857	-3.223909
C	-12.150615	6.902857	3.223909
C	12.150615	-6.902857	-3.223909
C	12.150615	-6.902857	3.223909
C	12.150615	6.902857	-3.223909
C	12.150615	6.902857	3.223909
C	3.223909	-12.150615	-6.902857
C	3.223909	-12.150615	6.902857
C	3.223909	12.150615	-6.902857
C	3.223909	12.150615	6.902857
C	6.902857	-3.223909	-12.150615
C	6.902857	-3.223909	12.150615
C	6.902857	3.223909	-12.150615
C	-6.902857	-3.223909	-12.150615
C	-5.232050	-6.685185	10.105436
C	-5.232050	6.685185	-10.105436
C	-5.232050	6.685185	10.105436
C	-6.685185	-10.105436	-5.232050
C	-6.685185	-10.105436	5.232050
C	-6.685185	10.105436	-5.232050
C	-6.685185	10.105436	5.232050
C	-10.105436	-5.232050	-6.685185
C	-10.105436	-5.232050	6.685185
C	-10.105436	5.232050	-6.685185
C	-10.105436	5.232050	6.685185
C	10.105436	-5.232050	-6.685185
C	10.105436	-5.232050	6.685185
C	10.105436	5.232050	-6.685185
C	10.105436	5.232050	6.685185
C	6.685185	-10.105436	-5.232050
C	6.685185	-10.105436	5.232050
C	6.685185	10.105436	-5.232050
C	6.685185	10.105436	5.232050
C	5.232050	-6.685185	-10.105436
C	5.232050	-6.685185	10.105436
C	5.232050	6.685185	-10.105436
C	-5.232050	-6.685185	-10.105436
C	-7.318265	-4.325431	10.249091
C	-7.318265	4.325431	-10.249091
C	-7.318265	4.325431	10.249091
C	-4.325431	-10.249091	-7.318265
C	-4.325431	-10.249091	7.318265
C	-4.325431	10.249091	-7.318265
C	-4.325431	10.249091	7.318265
C	-10.249091	-7.318265	-4.325431
C	-10.249091	-7.318265	4.325431
C	-10.249091	7.318265	-4.325431
C	-10.249091	7.318265	4.325431
C	10.249091	-7.318265	-4.325431
C	10.249091	-7.318265	4.325431
C	10.249091	7.318265	-4.325431
C	10.249091	7.318265	4.325431
C	4.325431	-10.249091	-7.318265
C	4.325431	-10.249091	7.318265
C	4.325431	10.249091	-7.318265
C	4.325431	10.249091	7.318265
C	7.318265	-4.325431	-10.249091
C	7.318265	-4.325431	10.249091
C	7.318265	4.325431	-10.249091
C	-7.318265	-4.325431	-10.249091
C	-6.739962	-6.810233	8.368775
C	-6.739962	6.810233	-8.368775
C	-6.739962	6.810233	8.368775
C	-6.810233	-8.368775	-6.739962
C	-6.810233	-8.368775	6.739962
C	-6.810233	8.368775	-6.739962
C	-6.810233	8.368775	6.739962
C	-8.368775	-6.739962	-6.810233
C	-8.368775	-6.739962	6.810233
C	-8.368775	6.739962	-6.810233
C	-8.368775	6.739962	6.810233
C	8.368775	-6.739962	-6.810233
C	8.368775	-6.739962	6.810233
C	8.368775	6.739962	-6.810233
C	8.368775	6.739962	6.810233
C	6.810233	-8.368775	-6.739962
C	6.810233	-8.368775	6.739962
C	6.810233	8.368775	-6.739962
C	6.810233	8.368775	6.739962
C	6.739962	-6.810233	-8.368775
C	6.739962	-6.810233	8.368775
C	6.739962	6.810233	-8.368775
C	-6.739962	-6.810233	-8.368775
C	-7.471087	-0.636459	13.026432
C	-7.471087	0.636459	-13.026432
C	-7.471087	0.636459	13.026432
C	-0.636459	-13.026432	-7.471087
C	-0.636459	-13.026432	7.471087
C	-0.636459	13.026432	-7.471087
C	-0.636459	13.026432	7.471087
C	-13.026432	-7.471087	-0.636459
C	-13.026432	-7.471087	0.636459
C	-13.026432	7.471087	-0.636459
C	-13.026432	7.471087	0.636459
C	13.026432	-7.471087	-0.636459
C	13.026432	-7.471087	0.636459
C	13.026432	7.471087	-0.636459
C	13.026432	7.471087	0.636459
C	0.636459	-13.026432	-7.471087
C	0.636459	-13.026432	7.471087
C	0.636459	13.026432	-7.471087
C	0.636459	13.026432	7.471087
C	7.471087	-0.636459	-13.026432
C	7.471087	-0.636459	13.026432
C	7.471087	0.636459	-13.026432
C	-7.471087	-0.636459	-13.026432
C	-8.662783	-0.609120	10.476147
C	-8.662783	0.609120	-10.476147
C	-8.662783	0.609120	10.476147
C	-0.609120	-10.476147	-8.662783
C	-0.609120	-10.476147	8.662783
C	-0.609120	10.476147	-8.662783
C	-0.609120	10.476147	8.662783
C	-10.476147	-8.662783	-0.609120
C	-10.476147	-8.662783	0.609120
C	-10.476147	8.662783	-0.609120
C	-10.476147	8.662783	0.609120
C	10.476147	-8.662783	-0.609120
C	10.476147	-8.662783	0.609120
C	10.476147	8.662783	-0.609120
C	10.476147	8.662783	0.609120
C	0.609120	-10.476147	-8.662783
C	0.609120	-10.476147	8.662783
C	0.609120	10.476147	-8.662783
C	0.609120	10.476147	8.662783
C	8.662783	-0.609120	-10.476147
C	8.662783	-0.609120	10.476147
C	8.662783	0.609120	-10.476147
C	-8.662783	-0.609120	-10.476147
C	-7.702880	-2.424197	11.332130
C	-7.702880	2.424197	-11.332130
C	-7.702880	2.424197	11.332130
C	-2.424197	-11.332130	-7.702880
C	-2.424197	-11.332130	7.702880
C	-2.424197	11.332130	-7.702880
C	-2.424197	11.332130	7.702880
C	-11.332130	-7.702880	-2.424197
C	-11.332130	-7.702880	2.424197
C	-11.332130	7.702880	-2.424197
C	-11.332130	7.702880	2.424197
C	11.332130	-7.702880	-2.424197
C	11.332130	-7.702880	2.424197
C	11.332130	7.702880	-2.424197
C	11.332130	7.702880	2.424197
C	2.424197	-11.332130	-7.702880
C	2.424197	-11.332130	7.702880
C	2.424197	11.332130	-7.702880
C	2.424197	11.332130	7.702880
C	7.702880	-2.424197	-11.332130
C	7.702880	-2.424197	11.332130
C	7.702880	2.424197	-11.332130
C	-7.702880	-2.424197	-11.332130
C	-10.615486	-0.673747	8.535374
C	-10.615486	0.673747	-8.535374
C	-10.615486	0.673747	8.535374
C	-0.673747	-8.535374	-10.615486
C	-0.673747	-8.535374	10.615486
C	-0.673747	8.535374	-10.615486
C	-0.673747	8.535374	10.615486
C	-8.535374	-10.615486	-0.673747
C	-8.535374	-10.615486	0.673747
C	-8.535374	10.615486	-0.673747
C	-8.535374	10.615486	0.673747
C	8.535374	-10.615486	-0.673747
C	8.535374	-10.615486	0.673747
C	8.535374	10.615486	-0.673747
C	8.535374	10.615486	0.673747
C	0.673747	-8.535374	-10.615486
C	0.673747	-8.535374	10.615486
C	0.673747	8.535374	-10.615486
C	0.673747	8.535374	10.615486
C	10.615486	-0.673747	-8.535374
C	10.615486	-0.673747	8.535374
C	10.615486	0.673747	-8.535374
C	-10.615486	-0.673747	-8.535374
C	13.042043	0.703386	7.438762
C	-13.042043	-0.703386	7.438762
C	-13.042043	0.703386	-7.438762
C	-13.042043	0.703386	7.438762
C	-0.703386	-7.438762	-13.042043
C	-0.703386	-7.438762	13.042043
C	-0.703386	7.438762	-13.042043
C	-0.703386	7.438762	13.042043
C	-7.438762	-13.042043	-0.703386
C	-7.438762	-13.042043	0.703386
C	-7.438762	13.042043	-0.703386
C	-7.438762	13.042043	0.703386
C	7.438762	-13.042043	-0.703386
C	7.438762	-13.042043	0.703386
C	7.438762	13.042043	-0.703386
C	7.438762	13.042043	0.703386
C	0.703386	-7.438762	-13.042043
C	0.703386	-7.438762	13.042043
C	0.703386	7.438762	-13.042043
C	0.703386	7.438762	13.042043
C	13.042043	-0.703386	-7.438762
C	13.042043	-0.703386	7.438762
C	13.042043	0.703386	-7.438762
C	-13.042043	-0.703386	-7.438762
C	11.156103	2.709904	7.661840
C	-11.156103	-2.709903	7.661840
C	-11.156103	2.709903	-7.661840
C	-11.156103	2.709903	7.661840
C	-2.709903	-7.661840	-11.156103
C	-2.709903	-7.661840	11.156103
C	-2.709903	7.661840	-11.156103
C	-2.709903	7.661840	11.156103
C	-7.661840	-11.156103	-2.709903
C	-7.661840	-11.156103	2.709903
C	-7.661840	11.156103	-2.709903
C	-7.661840	11.156103	2.709903
C	7.661840	-11.156103	-2.709903
C	7.661840	-11.156103	2.709903
C	7.661840	11.156103	-2.709903
C	7.661840	11.156103	2.709904
C	2.709903	-7.661840	-11.156103
C	2.709903	-7.661840	11.156103
C	2.709903	7.661840	-11.156103
C	2.709903	7.661840	11.156103
C	11.156103	-2.709903	-7.661840
C	11.156103	-2.709903	7.661840
C	11.156103	2.709903	-7.661840
C	-11.156103	-2.709903	-7.661840
C	-7.319531	-5.090611	9.495588
C	-7.319531	5.090611	-9.495588
C	-7.319530	5.090611	9.495588
C	-5.090611	-9.495588	-7.319531
C	-5.090611	-9.495588	7.319531
C	-5.090611	9.495588	-7.319531
C	-5.090611	9.495588	7.319530
C	-9.495588	-7.319531	-5.090611
C	-9.495588	-7.319531	5.090611
C	-9.495588	7.319531	-5.090611
C	-9.495588	7.319530	5.090611
C	9.495588	-7.319531	-5.090611
C	9.495588	-7.319531	5.090611
C	9.495588	7.319531	-5.090611
C	9.495588	7.319531	5.090611
C	5.090611	-9.495588	-7.319531
C	5.090611	-9.495588	7.319531
C	5.090611	9.495588	-7.319531
C	5.090611	9.495588	7.319531
C	7.319531	-5.090611	-9.495588
C	7.319531	-5.090611	9.495588
C	7.319531	5.090611	-9.495588
C	-7.319531	-5.090611	-9.495588
C	9.401373	4.513196	7.876638
C	-9.401373	-4.513196	7.876638
C	-9.401373	4.513196	-7.876638
C	-9.401373	4.513196	7.876638
C	-4.513196	-7.876638	-9.401373
C	-4.513196	-7.876638	9.401373
C	-4.513196	7.876638	-9.401373
C	-4.513196	7.876638	9.401373
C	-7.876638	-9.401373	-4.513196
C	-7.876638	-9.401373	4.513196
C	-7.876638	9.401373	-4.513196
C	-7.876638	9.401373	4.513196
C	7.876638	-9.401373	-4.513196
C	7.876638	-9.401373	4.513196
C	7.876638	9.401373	-4.513196
C	7.876638	9.401373	4.513196
C	4.513196	-7.876638	-9.401373
C	4.513196	-7.876638	9.401373
C	4.513196	7.876638	-9.401373
C	4.513196	7.876638	9.401373
C	9.401373	-4.513196	-7.876638
C	9.401373	-4.513196	7.876638
C	9.401373	4.513196	-7.876638
C	-9.401373	-4.513196	-7.876638
C	7.885108	6.244550	7.789313
C	-7.885108	-6.244550	7.789313
C	-7.885108	6.244550	-7.789313
C	-7.885108	6.244550	7.789313
C	-6.244550	-7.789313	-7.885108
C	-6.244550	-7.789313	7.885108
C	-6.244550	7.789313	-7.885108
C	-6.244550	7.789313	7.885108
C	-7.789313	-7.885108	-6.244550
C	-7.789313	-7.885108	6.244550
C	-7.789313	7.885108	-6.244550
C	-7.789313	7.885108	6.244550
C	7.789313	-7.885108	-6.244550
C	7.789313	-7.885108	6.244550
C	7.789313	7.885108	-6.244550
C	7.789313	7.885108	6.244550
C	6.244550	-7.789313	-7.885108
C	6.244550	-7.789313	7.885108
C	6.244550	7.789313	-7.885108
C	6.244550	7.789313	7.885108
C	7.885108	-6.244550	-7.789313
C	7.885108	-6.244550	7.789313
C	7.885108	6.244550	-7.789313
C	-7.885108	-6.244550	-7.789313